<?xml version="1.0" encoding="UTF-8"?>

<!-- generated on 2025-12-13 00:50:52 by Eclipse SUMO netedit Version 1.23.1
-->

<additional xmlns:xsi="http://www.w3.org/2001/XMLSchema-instance" xsi:noNamespaceSchemaLocation="http://sumo.dlr.de/xsd/additional_file.xsd">
    <!-- Detectors -->
   
    <laneAreaDetector id="NODE5_WEST_OUT_SPILL_0" lane="-E4_0" pos="0.00" length="120.00" period="300.00" file="e2.xml"/>
    <laneAreaDetector id="NODE5_WEST_OUT_SPILL_1" lane="-E4_1" pos="0.00" length="120.00" period="300.00" file="e2.xml"/>
    <laneAreaDetector id="NODE5_WEST_OUT_SPILL_2" lane="-E4_2" pos="0.00" length="120.00" period="300.00" file="e2.xml"/>

    <laneAreaDetector id="NODE5_EAST_OUT_SPILL_0" lane="E3_0" pos="0.00" length="120.00" period="300.00" file="e2.xml"/>
    <laneAreaDetector id="NODE5_EAST_OUT_SPILL_1" lane="E3_1" pos="0.00" length="120.00" period="300.00" file="e2.xml"/>
    <laneAreaDetector id="NODE5_EAST_OUT_SPILL_2" lane="E3_2" pos="0.00" length="120.00" period="300.00" file="e2.xml"/>

    <laneAreaDetector id="Node1_2_EB_0_QUEUE" lane="Node1-2-EB_0" pos="0.00" length="120.00" period="300.00" file="e2_queue.xml" friendlyPos="1"/>
    <laneAreaDetector id="Node1_2_EB_1_QUEUE" lane="Node1-2-EB_1" pos="0.00" length="120.00" period="300.00" file="e2_queue.xml" friendlyPos="1"/>
    <laneAreaDetector id="Node1_2_EB_2_QUEUE" lane="Node1-2-EB_2" pos="0.00" length="120.00" period="300.00" file="e2_queue.xml" friendlyPos="1"/>

    <laneAreaDetector id="Node2_5_SB_0_QUEUE" lane="Node2-5-SB_0" pos="0.00" length="80.00" period="300.00" file="e2_queue.xml" friendlyPos="1"/>
    <laneAreaDetector id="Node2_5_SB_1_QUEUE" lane="Node2-5-SB_1" pos="0.00" length="80.00" period="300.00" file="e2_queue.xml" friendlyPos="1"/>
    <laneAreaDetector id="Node2_5_SB_2_QUEUE" lane="Node2-5-SB_2" pos="0.00" length="80.00" period="300.00" file="e2_queue.xml" friendlyPos="1"/>

    <laneAreaDetector id="Node2_7_SB_0_QUEUE" lane="Node2-7-SB_0" pos="0.00" length="120.00" period="300.00" file="e2_queue.xml" friendlyPos="1"/>
    <laneAreaDetector id="Node2_7_SB_1_QUEUE" lane="Node2-7-SB_1" pos="0.00" length="120.00" period="300.00" file="e2_queue.xml" friendlyPos="1"/>
    <laneAreaDetector id="Node2_7_SB_2_QUEUE" lane="Node2-7-SB_2" pos="0.00" length="120.00" period="300.00" file="e2_queue.xml" friendlyPos="1"/>
</additional>
