<?xml version="1.0" encoding="UTF-8"?>

<!-- generated on 2025-12-13 03:44:13 by Eclipse SUMO netedit Version 1.23.1
-->

<routes xmlns:xsi="http://www.w3.org/2001/XMLSchema-instance" xsi:noNamespaceSchemaLocation="http://sumo.dlr.de/xsd/routes_file.xsd">
    <!-- VTypes -->
    <vType id="av" length="5.00" minGap="1.00" maxSpeed="13.89" color="green" accel="2.6" decel="4.5" sigma="0.0"/>
    <vType id="bus" length="12.00" minGap="3.00" maxSpeed="11.00" color="yellow" accel="1.2" decel="4.0" sigma="0.5"/>
    <vType id="car" length="5.00" minGap="2.50" maxSpeed="13.89" color="white" accel="2.6" decel="4.5" sigma="0.5"/>
    <vType id="taxi" length="5.00" minGap="2.00" maxSpeed="16.00" color="blue" accel="3.0" decel="5.0" sigma="0.5"/>
    <!-- Vehicles, persons and containers (sorted by depart) -->
    <flow id="f_0" type="bus" begin="0.00" from="Node2-7-SB" to="E5" via="E4" end="3600.00" vehsPerHour="200"/>
    <flow id="f_1" type="av" begin="0.00" color="blue" from="Node1-2-EB" to="E5" via="Node2-3-EB Node3-6-SB" end="3600.00" vehsPerHour="100"/>
    <flow id="f_2" type="av" begin="0.00" color="blue" from="Node2-7-SB" to="Node1-2-WB" via="Node2-5-SB" end="3600.00" vehsPerHour="100"/>
    <flow id="f_3" type="taxi" begin="0.00" color="grey" from="Node1-2-EB" to="-E3" via="Node2-5-SB" end="3600.00" vehsPerHour="100"/>
    <flow id="f_4" type="car" begin="0.00" from="-E4" to="Node1-2-WB" via="-E3" end="3600.00" vehsPerHour="250"/>
    <flow id="f_5" type="bus" begin="0.00" from="-E4" to="Node1-2-WB" via="-E3" end="3600.00" vehsPerHour="200"/>
    <flow id="f_6" type="bus" begin="0.00" from="Node1-2-EB" to="E4" via="Node2-3-EB E3" end="3600.00" vehsPerHour="200"/>
    <flow id="f_7" type="car" begin="0.00" from="Node2-7-SB" to="Node1-2-WB" via="Node2-5-SB -E3" end="3600.00" vehsPerHour="200"/>
    <flow id="f_8" type="av" begin="0.00" color="blue" from="-E4" to="E4" via="-E3" end="3600.00" vehsPerHour="100"/>
    <flow id="f_9" type="taxi" begin="0.00" color="grey" from="Node2-7-SB" to="E5" via="Node2-3-EB E4" end="3600.00" vehsPerHour="150"/>
</routes>
